/*--------------------------------*- C++ -*----------------------------------*\
| =========                 |                                                 |
| \\      /  F ield         | OpenFOAM: The Open Source CFD Toolbox           |
|  \\    /   O peration     | Version:  4.0                                   |
|   \\  /    A nd           | Web:      www.OpenFOAM.org                      |
|    \\/     M anipulation  |                                                 |
\*---------------------------------------------------------------------------*/
FoamFile
{
    version     2.0;
    format      ascii;
    class       dictionary;
    location    "system";
    object      fvSchemes;
}
// * * * * * * * * * * * * * * * * * * * * * * * * * * * * * * * * * * * * * //

ddtSchemes                                                                 
{
    default         Euler; 
}

gradSchemes
{
    default         Gauss linear;
    grad(U)	    Gauss linear;
    grad(p)	    Gauss linear;
}


divSchemes
{
    default  none;
    div(phi,U)                 			GaussDefCmpw cubista;
    div((nuEff*dev2(T(grad(U))))) 		Gauss linear;
    div(grad(U))				Gauss linear;
    div(tau_p)					Gauss linear;

}

laplacianSchemes
{
    default		    Gauss linear corrected;         
    laplacian(U)	    Gauss linear corrected;
}

interpolationSchemes
{
    default         linear;
}

snGradSchemes
{
    default         corrected;//orthogonal
}
fluxRequired
{
    default	no;
    p		;
}

// ************************************************************************* //
