/*--------------------------------*- C++ -*----------------------------------*\
  =========                 |
  \\      /  F ield         | OpenFOAM: The Open Source CFD Toolbox
   \\    /   O peration     | Website:  https://openfoam.org
    \\  /    A nd           | Version:  6
     \\/     M anipulation  |
\*---------------------------------------------------------------------------*/
FoamFile
{
    version     2.0;
    format      ascii;
    class       volScalarField;
    location    "0";
    object      eig2;
}
// * * * * * * * * * * * * * * * * * * * * * * * * * * * * * * * * * * * * * //

dimensions      [0 0 0 0 0 0 0];

internalField   uniform 0.05;

boundaryField
{
    inlet_north
    {
        type            fixedValue;
        value           uniform 0;
    }
    inlet_south
    {
        type            fixedValue;
        value           uniform 0;
    }
    outlet_east
    {
        type            zeroGradient;
    }
    outlet_west
    {
        type            zeroGradient;
    }
    walls
    {
        type            linearExtrapolation;
        value           uniform 0;
    }
    frontAndBack
    {
        type            empty;
    }
}


// ************************************************************************* //
